87
Cu Nd O2.6
Nd    4.246488    4.266869    1.888500
Nd    1.122983    6.223655    1.888500
Nd    7.369993    2.310082    1.888500
Nd    2.328813    1.245072    1.888500
Nd    6.164162    7.288665    1.888500
Cu    0.000000    0.000000    0.000000
Cu    0.000000    0.000000    3.777000
Cu   -0.067025    8.533737    0.000000
Cu   -0.067025    8.533737    3.777000
Cu    8.560000    0.000000    0.000000
Cu    8.560000    0.000000    3.777000
Cu    8.492975    8.533737    0.000000
Cu    8.492975    8.533737    3.777000
Cu    1.392810    3.584169    0.000000
Cu    1.392810    3.584169    3.777000
Cu    7.100166    4.949568    0.000000
Cu    7.100166    4.949568    3.777000
Cu    3.616610    7.083002    0.000000
Cu    3.616610    7.083002    3.777000
Cu    4.876366    1.450735    0.000000
Cu    4.876366    1.450735    3.777000
 O    0.631343    1.356864    0.000000
 O    0.631343    1.356864    3.777000
 O    7.861633    7.176873    0.000000
 O    7.861633    7.176873    3.777000
 O    3.114126    2.397980    0.000000
 O    3.114126    2.397980    3.777000
 O    5.378850    6.135757    0.000000
 O    5.378850    6.135757    3.777000
 O    2.364408    5.214113    0.000000
 O    2.364408    5.214113    3.777000
 O    6.128568    3.319624    0.000000
 O    6.128568    3.319624    3.777000
 O    1.982636    8.047315    0.000000
 O    1.982636    8.047315    3.777000
 O    6.510340    0.486423    0.000000
 O    6.510340    0.486423    3.777000
 O    1.289822    3.618304    1.888500
 O    7.203154    4.915432    1.888500
 O    3.334532    7.031799    1.888500
 O    5.158443    1.501938    1.888500
 O    0.000000    0.000000    1.888500
 O   -0.067025    8.533737    1.888500
 O    8.560000    0.000000    1.888500
 O    8.492975    8.533737    1.888500
 O   -1.356846    4.915432    1.888500
 O   -0.698368    7.176873    0.000000
 O   -0.698368    7.176873    3.777000
 O    9.191343    1.356864    0.000000
 O    9.191343    1.356864    3.777000
 O    9.849822    3.618304    1.888500
 O    2.049660   -0.486423    0.000000
 O    2.049660   -0.486423    3.777000
 O    6.443316    9.020160    0.000000
 O    6.443316    9.020160    3.777000
 O   -2.049660    0.486423    0.000000
 O   -0.631342   -1.356864    0.000000
 O   -0.000000   -0.000000   -1.888500
 O   -2.049660    0.486423    3.777000
 O   -0.631342   -1.356864    3.777000
 O    0.000000    0.000000    5.665500
 O   -2.116685    9.020160    0.000000
 O   -0.067025    8.533737   -1.888500
 O    0.564318    9.890601    0.000000
 O   -2.116685    9.020160    3.777000
 O    0.564318    9.890601    3.777000
 O   -0.067025    8.533737    5.665500
 O    7.928658   -1.356864    0.000000
 O    8.560000   -0.000000   -1.888500
 O   10.609661   -0.486423    0.000000
 O    7.928658   -1.356864    3.777000
 O    8.560000    0.000000    5.665500
 O   10.609661   -0.486423    3.777000
 O    8.492975    8.533737   -1.888500
 O    9.124318    9.890601    0.000000
 O   10.542636    8.047315    0.000000
 O    9.124318    9.890601    3.777000
 O    8.492975    8.533737    5.665500
 O   10.542636    8.047315    3.777000
 O    1.289822    3.618304   -1.888500
 O    1.289822    3.618304    5.665500
 O    7.203154    4.915432   -1.888500
 O    7.203154    4.915432    5.665500
 O    3.334532    7.031799   -1.888500
 O    3.334532    7.031799    5.665500
 O    5.158443    1.501938   -1.888500
 O    5.158443    1.501938    5.665500
